Version 4
SHEET 1 2784 1144
WIRE 240 -496 32 -496
WIRE 400 -496 240 -496
WIRE 704 -496 400 -496
WIRE 400 -448 400 -496
WIRE 704 -432 704 -496
WIRE 400 -352 400 -368
WIRE 32 -320 32 -496
WIRE 1168 -304 1120 -304
WIRE 1264 -304 1232 -304
WIRE 1424 -304 1344 -304
WIRE 1520 -304 1424 -304
WIRE 1552 -304 1520 -304
WIRE 1904 -304 1840 -304
WIRE 2048 -304 1904 -304
WIRE 2208 -304 2048 -304
WIRE 2256 -304 2208 -304
WIRE 704 -288 704 -352
WIRE 848 -288 704 -288
WIRE 928 -288 848 -288
WIRE 2048 -288 2048 -304
WIRE 704 -272 704 -288
WIRE 1424 -272 1424 -304
WIRE 1904 -272 1904 -304
WIRE 2272 -272 2160 -272
WIRE 848 -240 848 -288
WIRE 2208 -240 2208 -304
WIRE 400 -224 400 -272
WIRE 544 -224 400 -224
WIRE 608 -224 544 -224
WIRE 2160 -224 2160 -272
WIRE 2176 -224 2160 -224
WIRE 32 -208 32 -240
WIRE 1520 -208 1520 -304
WIRE 1552 -208 1520 -208
WIRE 2272 -208 2272 -272
WIRE 2272 -208 2240 -208
WIRE 2336 -208 2272 -208
WIRE 400 -192 400 -224
WIRE 2048 -192 2048 -208
WIRE 2176 -192 2048 -192
WIRE 704 -176 704 -192
WIRE 2048 -176 2048 -192
WIRE 32 -80 32 -128
WIRE 224 -80 32 -80
WIRE 400 -80 400 -112
WIRE 400 -80 224 -80
WIRE 544 -80 544 -96
WIRE 544 -80 400 -80
WIRE 704 -80 704 -96
WIRE 704 -80 544 -80
WIRE 848 -80 848 -112
WIRE 848 -80 704 -80
WIRE 1424 -80 1424 -208
WIRE 1664 -80 1424 -80
WIRE 1696 -80 1696 -144
WIRE 1696 -80 1664 -80
WIRE 1904 -80 1904 -208
WIRE 1904 -80 1696 -80
WIRE 2048 -80 2048 -96
WIRE 2048 -80 1904 -80
WIRE 2208 -80 2208 -176
WIRE 2208 -80 2048 -80
WIRE 224 -64 224 -80
WIRE 1664 -48 1664 -80
WIRE 288 224 272 224
WIRE 384 224 368 224
WIRE 752 224 592 224
WIRE 896 224 752 224
WIRE 1440 224 1424 224
WIRE 1536 224 1520 224
WIRE 1920 224 1760 224
WIRE 2064 224 1920 224
WIRE 592 256 592 224
WIRE 752 256 752 224
WIRE 1760 256 1760 224
WIRE 1920 256 1920 224
WIRE 112 320 64 320
WIRE 272 320 272 224
WIRE 272 320 192 320
WIRE 1264 320 1216 320
WIRE 1424 320 1424 224
WIRE 1424 320 1344 320
WIRE 64 336 64 320
WIRE 1216 336 1216 320
WIRE 272 352 272 320
WIRE 288 352 272 352
WIRE 1424 352 1424 320
WIRE 1440 352 1424 352
WIRE 384 368 384 224
WIRE 384 368 352 368
WIRE 480 368 384 368
WIRE 592 368 592 336
WIRE 592 368 560 368
WIRE 640 368 592 368
WIRE 752 368 752 320
WIRE 752 368 720 368
WIRE 800 368 752 368
WIRE 1536 368 1536 224
WIRE 1536 368 1504 368
WIRE 1648 368 1536 368
WIRE 1760 368 1760 336
WIRE 1760 368 1728 368
WIRE 1808 368 1760 368
WIRE 1920 368 1920 320
WIRE 1920 368 1888 368
WIRE 1968 368 1920 368
WIRE 288 384 272 384
WIRE 896 384 896 224
WIRE 896 384 864 384
WIRE 944 384 896 384
WIRE 1440 384 1424 384
WIRE 2064 384 2064 224
WIRE 2064 384 2032 384
WIRE 2112 384 2064 384
WIRE 800 400 784 400
WIRE 1968 400 1952 400
WIRE 112 416 64 416
WIRE 272 416 272 384
WIRE 272 416 192 416
WIRE 592 416 592 368
WIRE 1264 416 1216 416
WIRE 1424 416 1424 384
WIRE 1424 416 1344 416
WIRE 1760 416 1760 368
WIRE 272 448 272 416
WIRE 1424 448 1424 416
WIRE 592 512 592 480
WIRE 784 512 784 400
WIRE 1760 512 1760 480
WIRE 1952 512 1952 400
FLAG 224 -64 0
FLAG 608 -224 Isens
FLAG 320 336 3v3
FLAG 320 400 0
FLAG 64 336 0
FLAG 64 416 Isens
FLAG 272 528 1v5
FLAG 240 -496 Vac
FLAG 1120 -304 Vac
FLAG 1664 -48 0
FLAG 2256 -304 3v3
FLAG 928 -288 Vsens
FLAG 2336 -208 1v5
FLAG 1472 336 3v3
FLAG 1472 400 0
FLAG 1216 336 0
FLAG 1216 416 Vsens
FLAG 1424 528 1v5
FLAG 832 416 0
FLAG 832 352 3v3
FLAG 592 512 1v5
FLAG 784 512 1v5
FLAG 944 384 Iadc
FLAG 2000 416 0
FLAG 2000 352 3v3
FLAG 1760 512 1v5
FLAG 1952 512 1v5
FLAG 2112 384 Vadc
FLAG 2560 -240 0
FLAG 2672 -240 0
FLAG 2560 -320 3v3L
FLAG 2672 -320 1v5L
SYMBOL voltage 32 -336 R0
WINDOW 3 24 96 Invisible 2
WINDOW 123 0 0 Left 2
WINDOW 39 0 0 Left 2
SYMATTR Value SINE(0 19.7979797979797979 500 0 0 0)
SYMATTR InstName V1
SYMBOL ind 384 -464 R0
SYMATTR InstName L1
SYMATTR Value 3.7m
SYMBOL res 384 -368 R0
SYMATTR InstName R1
SYMATTR Value 20
SYMBOL res 384 -208 R0
SYMATTR InstName Rshunt
SYMATTR Value 0.2
SYMBOL res 688 -448 R0
SYMATTR InstName R3
SYMATTR Value 100k
SYMBOL res 688 -192 R0
SYMATTR InstName R4
SYMATTR Value 1.8k
SYMBOL Opamps/UniversalOpamp2 320 368 R0
SYMATTR InstName Iamp
SYMBOL res 384 208 R90
WINDOW 0 0 56 VBottom 2
WINDOW 3 32 56 VTop 2
SYMATTR InstName R5
SYMATTR Value 120k
SYMBOL res 208 304 R90
WINDOW 0 0 56 VBottom 2
WINDOW 3 32 56 VTop 2
SYMATTR InstName R6
SYMATTR Value 15k
SYMBOL res 208 400 R90
WINDOW 0 0 56 VBottom 2
WINDOW 3 32 56 VTop 2
SYMATTR InstName R7
SYMATTR Value 15k
SYMBOL res 288 544 R180
WINDOW 0 36 76 Left 2
WINDOW 3 36 40 Left 2
SYMATTR InstName R8
SYMATTR Value 120k
SYMBOL PowerProducts/LT3009-3.3 1696 -256 R0
SYMATTR InstName U2
SYMBOL cap 1408 -272 R0
SYMATTR InstName C1
SYMATTR Value 100µ
SYMBOL cap 1888 -272 R0
SYMATTR InstName C2
SYMATTR Value 100µ
SYMBOL res 1360 -320 R90
WINDOW 0 0 56 VBottom 2
WINDOW 3 32 56 VTop 2
SYMATTR InstName R9
SYMATTR Value 10
SYMBOL diode 1168 -288 R270
WINDOW 0 32 32 VTop 2
WINDOW 3 0 32 VBottom 2
SYMATTR InstName D1
SYMBOL res 2032 -304 R0
SYMATTR InstName R10
SYMATTR Value 12k
SYMBOL res 2032 -192 R0
SYMATTR InstName R11
SYMATTR Value 10k
SYMBOL Opamps/UniversalOpamp2 1472 368 R0
SYMATTR InstName Vamp
SYMBOL res 1536 208 R90
WINDOW 0 0 56 VBottom 2
WINDOW 3 32 56 VTop 2
SYMATTR InstName R12
SYMATTR Value 100k
SYMBOL res 1360 304 R90
WINDOW 0 0 56 VBottom 2
WINDOW 3 32 56 VTop 2
SYMATTR InstName R13
SYMATTR Value 100k
SYMBOL res 1360 400 R90
WINDOW 0 0 56 VBottom 2
WINDOW 3 32 56 VTop 2
SYMATTR InstName R14
SYMATTR Value 92k
SYMBOL res 1440 544 R180
WINDOW 0 36 76 Left 2
WINDOW 3 36 40 Left 2
SYMATTR InstName R15
SYMATTR Value 100k
SYMBOL zener 832 -240 R0
SYMATTR InstName D2
SYMBOL zener 864 -112 R180
WINDOW 0 24 64 Left 2
WINDOW 3 24 0 Left 2
SYMATTR InstName D3
SYMBOL zener 528 -224 R0
SYMATTR InstName D4
SYMBOL zener 560 -96 R180
WINDOW 0 24 64 Left 2
WINDOW 3 24 0 Left 2
SYMATTR InstName D5
SYMBOL Opamps\\UniversalOpamp2 2208 -208 R0
SYMATTR InstName Vbuf
SYMBOL Opamps\\UniversalOpamp2 832 384 R0
SYMATTR InstName Ifilter
SYMBOL cap 736 256 R0
SYMATTR InstName C3
SYMATTR Value 1.8n
SYMBOL res 624 384 R270
WINDOW 0 32 56 VTop 2
WINDOW 3 0 56 VBottom 2
SYMATTR InstName R16
SYMATTR Value 10k
SYMBOL res 576 240 R0
SYMATTR InstName R17
SYMATTR Value 3.3k
SYMBOL cap 576 416 R0
SYMATTR InstName C4
SYMATTR Value 15n
SYMBOL res 464 384 R270
WINDOW 0 32 56 VTop 2
WINDOW 3 0 56 VBottom 2
SYMATTR InstName R18
SYMATTR Value 3.3k
SYMBOL Opamps\\UniversalOpamp2 2000 384 R0
SYMATTR InstName Vfilter
SYMBOL cap 1904 256 R0
SYMATTR InstName C5
SYMATTR Value 1.8n
SYMBOL res 1792 384 R270
WINDOW 0 32 56 VTop 2
WINDOW 3 0 56 VBottom 2
SYMATTR InstName R19
SYMATTR Value 10k
SYMBOL res 1744 240 R0
SYMATTR InstName R20
SYMATTR Value 3.3k
SYMBOL cap 1744 416 R0
SYMATTR InstName C6
SYMATTR Value 15n
SYMBOL res 1632 384 R270
WINDOW 0 32 56 VTop 2
WINDOW 3 0 56 VBottom 2
SYMATTR InstName R21
SYMATTR Value 3.3k
SYMBOL voltage 2560 -336 R0
WINDOW 123 0 0 Left 2
WINDOW 39 0 0 Left 2
SYMATTR InstName V2
SYMATTR Value 3.3
SYMBOL voltage 2672 -336 R0
WINDOW 123 0 0 Left 2
WINDOW 39 0 0 Left 2
SYMATTR InstName V3
SYMATTR Value 1.5
SYMBOL voltage 32 -224 R0
WINDOW 3 24 44 Left 2
WINDOW 123 24 44 Left 2
WINDOW 39 0 0 Left 2
SYMATTR Value ""
SYMATTR InstName AC1
SYMBOL res 688 -288 R0
SYMATTR InstName R22
SYMATTR Value 5.6k
TEXT 304 -408 Left 2 ;Load
TEXT 176 0 Left 2 ;Power Circuit with AC Source & Load
TEXT 232 616 Center 2 ;Current Measurement\nAmplification (x9.45) & Level Shift (1.65V)
TEXT 1472 8 Left 2 ;AC (22V-16V) to Regulated 3.3 V DC
TEXT 1408 616 Center 2 ;Voltage Measurement\nLevel Shift (1.65V)
TEXT 584 616 Left 2 ;Filtering (2nd order)
TEXT 1752 616 Left 2 ;Filtering (2nd order)
TEXT 2624 -192 Center 2 ;Perfect Voltage Sources\n(for AC analysis)
TEXT 160 -552 Left 2 !.tran 300m
TEXT 184 -168 Left 2 ;5x 1ohm resistors
RECTANGLE Normal 364 -460 468 -252 2
